/*--------------------------------*- C++ -*----------------------------------*\
| =========                 |                                                 |
| \\      /  F ield         | OpenFOAM: The Open Source CFD Toolbox           |
|  \\    /   O peration     | Version:  13                                    |
\*---------------------------------------------------------------------------*/
//  Die substrate -- silicon.
//  kappa = 150 W/m/K from settings_sim.json (conductivity_die_substrate).
//  rho, Cv: Si at ~300 K.
// ============================================================================

FoamFile
{
    version     2.0;
    format      ascii;
    class       dictionary;
    location    "constant/die";
    object      physicalProperties;
}

thermoType
{
    type            heSolidThermo;
    mixture         pureMixture;
    transport       constIsoSolid;
    thermo          eConst;
    equationOfState rhoConst;
    specie          specie;
    energy          sensibleInternalEnergy;
}

mixture
{
    specie
    {
        molWeight       28.09;          // g/mol, Si
    }

    equationOfState
    {
        rho             2329;           // kg/m^3
    }

    thermodynamics
    {
        Cv              703;            // J/kg/K
        Hf              0;
    }

    transport
    {
        kappa           150;            // W/m/K (from JSON: conductivity_die_substrate)
    }
}

// ************************************************************************* //
